================================================================================
                           License Manager Plugins
================================================================================

About
=====

Collection of plugins to check the status of industry major license managers. Currently supporting:

FlexLM (Flexera Software):
 * check_flexlm_status              : check status and license usage.
 * check_flexlm_feature_expiration  : check if a feature is expired or about to expire.

LSTC (LS-Dyna):
 * check_lstc_status                : check status and number of connected users (running jobs).

Installation
============

Requirements
------------

Note:
  You do not need to install all license utility, only the one you will use !

FlexLM:

You need to install "lmutil" utility on your Nagios server in order to use the plugin:
http://www.globes.com/support/fnp_utilities_download.htm

Once you downloaded the file, copy content in a directory.

LSTC:

TODO: write LSTC requirements.

Get the plugin package
----------------------

Note:
  I recommend installing 'git' on your Nagios server in order to download and keep up to date this plugin.
  If you are behind a proxy, you can export http_proxy environment variable before.

Go inside your Nagios plugins directory (usually /usr/local/nagios/libexec), then type in:

  git clone git://github.com/bigbrozer/license_manager_plugins.git

This will create a new folder "license_manager_plugins".

Configuration
-------------

Edit the file "config.py" and set *_PATH variables to the correct location for each license tools on your system.

Note:
  You do not need to configure all, only the one you will use !

Usage
=====

Usage: <plugin.py> [options]

Options:
  -h, --help            show help message and exit
  -l LICENSE            FLEXlm port or license file to check
  -d, --debug           Enable debug mode
  --no-long-output      Disable Nagios long output (compatibility with Nagios < 3.x)

Contact
=======

Author              : Vincent 'v!nZ' Besançon
Project home page   : http://github.com/bigbrozer/license_manager_plugins
Nagios Exchange     : http://exchange.nagios.org/directory/Plugins/License-Management/Industry-License-Manager-Plugins/details
Email               : besancon [DOT] vincent [AT] gmail [DOT] com
Support             : http://github.com/bigbrozer/license_manager_plugins/issues

Support
=======

Feel free to send me email if you need help or send me remarks, suggestions, etc...
I recommend to use issue page on Github (see Support link above) if you think there is
a problem with this plugin.

License
=======

See LICENSE file inside plugin package.

Enjoy ;-)
